*NODE, NSET=nodes
1, 1.100000, 1.000000, 0.000000
2, 1.529289, 0.970711, 0.000000
3, 1.941421, 0.600000, 0.000000
4, 3.450000, 0.700000, 0.000000
5, 3.450000, -0.100000, 0.000000
6, 3.500000, -0.100000, 0.000000
7, 3.500000, 0.300000, 0.000000
8, 3.500000, 0.700000, 0.000000
9, 3.500000, 1.100000, 0.000000
10, 3.450000, 1.100000, 0.000000
11, 3.350000, 0.400000, 0.000000
14, 4.500000, 0.300000, 0.000000
15, 4.500000, 0.700000, 0.000000
16, 1.000000, 0.100000, 0.000000
18, 1.100000, -0.000000, 0.000000
20, 1.000000, 0.900000, 0.000000
21, 1.458579, -0.000000, 0.000000
22, 1.529289, 0.029289, 0.000000
24, 1.458579, 1.000000, 0.000000
25, 1.870711, 0.370711, 0.000000
** ... 763 like lines cut

*ELEMENT, TYPE=CPS8, ELSET=CPS8
191, 721, 722, 725, 724, 740, 741, 742, 743
192, 722, 158, 159, 725, 744, 166, 745, 741
193, 725, 159, 160, 723, 745, 167, 746, 747
194, 724, 725, 723, 720, 742, 747, 748, 749
195, 721, 724, 728, 727, 743, 750, 751, 752
196, 724, 720, 726, 728, 749, 753, 754, 750
197, 728, 726, 178, 179, 754, 755, 186, 756
198, 727, 728, 179, 180, 751, 756, 187, 757
199, 156, 729, 731, 155, 758, 759, 760, 163
200, 729, 719, 730, 731, 761, 762, 763, 759
201, 731, 730, 84, 83, 763, 764, 87, 765
202, 155, 731, 83, 7, 760, 765, 86, 162
203, 160, 161, 733, 723, 168, 766, 767, 746
204, 161, 14, 170, 733, 169, 173, 768, 766
205, 733, 170, 171, 732, 768, 174, 769, 770
206, 723, 733, 732, 720, 767, 770, 771, 748
207, 182, 183, 735, 734, 190, 772, 773, 774
208, 183, 8, 85, 735, 191, 89, 775, 772
209, 735, 85, 84, 730, 775, 88, 764, 776
210, 734, 735, 730, 719, 773, 776, 762, 777
** ... 12 like lines cut
*ELEMENT, TYPE=CAX8, ELSET=CAX8
1, 1, 290, 293, 135, 389, 390, 391, 139
2, 290, 253, 291, 293, 392, 393, 394, 390
3, 293, 291, 266, 292, 394, 395, 396, 397
4, 135, 293, 292, 134, 391, 397, 398, 138
5, 262, 294, 298, 297, 399, 400, 401, 402
6, 294, 265, 295, 298, 403, 404, 405, 400
7, 298, 295, 264, 296, 405, 406, 407, 408
8, 297, 298, 296, 254, 401, 408, 409, 410
9, 259, 299, 302, 301, 411, 412, 413, 414
10, 299, 256, 300, 302, 415, 416, 417, 412
11, 302, 300, 41, 42, 417, 418, 45, 419
12, 301, 302, 42, 25, 413, 419, 46, 420
13, 145, 146, 306, 305, 153, 421, 422, 423
14, 146, 16, 303, 306, 154, 424, 425, 421
15, 306, 303, 252, 304, 425, 426, 427, 428
16, 305, 306, 304, 258, 422, 428, 429, 430
17, 18, 33, 309, 308, 36, 431, 432, 433
18, 33, 34, 307, 309, 37, 434, 435, 431
19, 309, 307, 258, 304, 435, 436, 429, 437
20, 308, 309, 304, 252, 432, 437, 427, 438
** ... 170 like lines cut
*ELSET,ELSET=EALL
191, 192, 193, 194, 195, 196,
197, 198, 199, 200, 201, 202,
203, 204, 205, 206, 207, 208,
209, 210, 211, 212, 213, 214,
215, 216, 217, 218, 219, 220,
221, 222, 1, 2, 3, 4,
5, 6, 7, 8, 9, 10,
11, 12, 13, 14, 15, 16,
17, 18, 19, 20, 21, 22,
23, 24, 25, 26, 27, 28,
29, 30, 31, 32, 33, 34,
35, 36, 37, 38, 39, 40,
41, 42, 43, 44, 45, 46,
47, 48, 49, 50, 51, 52,
53, 54, 55, 56, 57, 58,
59, 60, 61, 62, 63, 64,
65, 66, 67, 68, 69, 70,
71, 72, 73, 74, 75, 76,
77, 78, 79, 80, 81, 82,
83, 84, 85, 86, 87, 88,
** ... 17 like lines cut

*ELSET,ELSET=PART0_elements
1, 2, 3, 4, 5, 6,
7, 8, 9, 10, 11, 12,
13, 14, 15, 16, 17, 18,
19, 20, 21, 22, 23, 24,
25, 26, 27, 28, 29, 30,
31, 32, 33, 34, 35, 36,
37, 38, 39, 40, 41, 42,
43, 44, 45, 46, 47, 48,
49, 50, 51, 52, 53, 54,
55, 56, 57, 58, 59, 60,
61, 62, 63, 64, 65, 66,
67, 68, 69, 70, 71, 72,
73, 74, 75, 76, 77, 78,
79, 80, 81, 82, 83, 84,
85, 86, 87, 88, 89, 90,
91, 92, 93, 94, 95, 96,
97, 98, 99, 100, 101, 102,
103, 104, 105, 106, 107, 108,
109, 110, 111, 112, 113, 114,
115, 116, 117, 118, 119, 120,
** ... 17 like lines cut
*NSET,NSET=L4_nodes
70, 6, 5, 73, 72, 74,
75, 69, 71
*NSET,NSET=A1_nodes
84, 8, 7, 14, 15, 158,
160, 155, 157, 180, 156, 182,
171, 178, 161, 159, 172, 177,
170, 179, 181, 183, 188, 190,
191, 185, 187, 189, 186, 87,
88, 86, 89, 162, 165, 166,
167, 164, 168, 169, 173, 174,
175, 176, 184, 163, 732, 735,
727, 724, 728, 729, 733, 734,
736, 722, 730, 723, 725, 726,
731, 738, 737, 739, 787, 788,
786, 789, 775, 780, 773, 785,
791, 777, 774, 778, 783, 779,
781, 790, 776, 782, 784, 741,
742, 743, 744, 745, 746, 740,
770, 771, 758, 759, 753, 772,
767, 762, 764, 755, 768, 756,
769, 748, 750, 763, 747, 757,
749, 760, 751, 752, 765, 754,
761, 766, 719, 720, 721, 83,
85

*MATERIAL,NAME=nickel_alloy
*ELASTIC
208000000000,0.3
*DENSITY
8220
*SOLID SECTION,ELSET=PART0_elements,MATERIAL=nickel_alloy
*NODAL THICKNESS
A1_nodes, 0.100000
*STEP
*STATIC
** Rotation force on component: PART0_elements
** Speed = 10000 rotations/minute
*DLOAD
PART0_elements,CENTRIF,1096622.711232,0.,0.,0.,0.,1.,0.
*BOUNDARY
L4_nodes,2,2,0.000000
*EL FILE
E,S
*NODE FILE
RF,U
*EL PRINT,ELSET=EALL
S
*END STEP
