*NODE, NSET=nodes
1, 0.000000, 0.000000, 0.000000
2, 2.438400, 0.000000, 0.000000
3, 6.705600, 3.657600, 0.000000
4, 33.223200, 4.120466, 0.000000
5, 35.052000, 4.152388, 0.000000
6, 35.052000, 8.419588, 0.000000
8, 6.705600, 22.250400, 0.000000
10, 4.267200, 29.870400, 0.000000
11, 0.609600, 33.528000, 0.000000
12, 0.000000, 33.528000, 0.000000
13, 0.609600, 0.000000, 0.000000
14, 1.219200, 0.000000, 0.000000
15, 1.828800, 0.000000, 0.000000
16, 0.304800, 0.000000, 0.000000
17, 0.914400, 0.000000, 0.000000
18, 1.524000, 0.000000, 0.000000
19, 2.133600, 0.000000, 0.000000
20, 3.505200, 0.914400, 0.000000
21, 4.572000, 1.828800, 0.000000
22, 5.638800, 2.743200, 0.000000
** ... 347 like lines cut

*ELEMENT, TYPE=CPE8, ELSET=EAll
1, 4, 145, 147, 33, 196, 197, 198, 41
2, 145, 57, 58, 147, 199, 69, 200, 197
3, 147, 58, 59, 146, 200, 70, 201, 202
4, 33, 147, 146, 32, 198, 202, 203, 40
5, 130, 148, 150, 149, 204, 205, 206, 207
6, 148, 123, 134, 150, 208, 209, 210, 205
7, 150, 134, 65, 133, 210, 211, 212, 213
8, 149, 150, 133, 124, 206, 213, 214, 215
9, 124, 132, 152, 139, 216, 217, 218, 219
10, 132, 8, 79, 152, 220, 82, 221, 217
11, 152, 79, 80, 151, 221, 83, 222, 223
12, 139, 152, 151, 103, 218, 223, 224, 225
13, 10, 138, 153, 81, 226, 227, 228, 85
14, 138, 101, 102, 153, 229, 113, 230, 227
15, 153, 102, 103, 151, 230, 114, 224, 231
16, 81, 153, 151, 80, 228, 231, 222, 84
17, 109, 154, 158, 157, 232, 233, 234, 235
18, 154, 125, 155, 158, 236, 237, 238, 233
19, 158, 155, 21, 156, 238, 239, 240, 241
20, 157, 158, 156, 128, 234, 241, 242, 243
** ... 82 like lines cut

*ELSET,ELSET=PART0_elements
1, 2, 3, 4, 5, 6,
7, 8, 9, 10, 11, 12,
13, 14, 15, 16, 17, 18,
19, 20, 21, 22, 23, 24,
25, 26, 27, 28, 29, 30,
31, 32, 33, 34, 35, 36,
37, 38, 39, 40, 41, 42,
43, 44, 45, 46, 47, 48,
49, 50, 51, 52, 53, 54,
55, 56, 57, 58, 59, 60,
61, 62, 63, 64, 65, 66,
67, 68, 69, 70, 71, 72,
73, 74, 75, 76, 77, 78,
79, 80, 81, 82, 83, 84,
85, 86, 87, 88, 89, 90,
91, 92, 93, 94, 95, 96,
97, 98, 99, 100, 101, 102
*NSET,NSET=PART0_nodes
32, 61, 50, 57, 65, 14,
21, 30, 43, 59, 63, 28,
1, 3, 10, 8, 12, 5,
11, 4, 2, 6, 81, 123,
124, 86, 88, 93, 95, 126,
130, 22, 109, 15, 131, 127,
31, 94, 80, 29, 42, 44,
51, 27, 87, 103, 56, 60,
125, 128, 33, 20, 49, 62,
101, 105, 64, 66, 13, 79,
107, 58, 129, 180, 19, 24,
187, 172, 175, 192, 181, 170,
182, 184, 195, 17, 167, 168,
178, 185, 176, 169, 18, 25,
26, 186, 190, 189, 194, 34,
35, 174, 188, 177, 171, 16,
191, 193, 23, 173, 179, 183,
84, 99, 111, 40, 54, 74,
77, 91, 112, 113, 48, 85,
37, 52, 69, 46, 68, 41,
** ... 42 like lines cut
*NSET,NSET=L9_nodes
1, 12, 109, 103, 101, 105,
107, 111, 112, 113, 122, 119,
115, 118, 114, 117, 116, 120,
121, 110, 108, 104, 100, 102,
106

*MATERIAL,NAME=concrete
*ELASTIC
30000000000,0.2
*DENSITY
2300
*SOLID SECTION,ELSET=PART0_elements,MATERIAL=concrete
*NODAL THICKNESS
PART0_nodes, 176.784000
*STEP
*STATIC
** Pressure on component: L3-L8_faces
*DLOAD
92,P1,101325.000000
96,P3,101325.000000
91,P1,101325.000000
95,P2,101325.000000
92,P2,101325.000000
71,P2,101325.000000
93,P3,101325.000000
70,P2,101325.000000
72,P3,101325.000000
73,P1,101325.000000
74,P1,101325.000000
2,P2,101325.000000
3,P2,101325.000000
43,P3,101325.000000
76,P1,101325.000000
44,P3,101325.000000
77,P1,101325.000000
45,P1,101325.000000
46,P1,101325.000000
71,P3,101325.000000
** ... 12 like lines cut
** Fluid pressure on component: L0-L2_faces
*DLOAD
64,P3,406313.976000
*DLOAD
68,P4,424254.504000
*DLOAD
63,P3,412294.152000
*DLOAD
65,P4,418274.328000
*DLOAD
60,P3,366695.310000
*DLOAD
64,P4,398091.234000
*DLOAD
59,P3,377160.618000
*DLOAD
61,P4,387625.926000
*DLOAD
24,P4,215135.224500
*DLOAD
1,P4,117583.603500
*DLOAD
27,P3,280169.638500
*DLOAD
28,P3,247652.431500
*DLOAD
4,P4,150100.810500
*DLOAD
37,P1,345204.052500
*DLOAD
21,P4,182618.017500
*DLOAD
38,P1,312686.845500
** Gravity on component: PART0_elements
*DLOAD
PART0_elements,GRAV,9.810000,-1.,0.,0.
*BOUNDARY
L9_nodes,1,1,0.000000
*BOUNDARY
L9_nodes,2,2,0.000000
*EL FILE
E,S
*NODE FILE
RF,U
*EL PRINT,ELSET=EALL
S
*END STEP
