*NODE, NSET=nodes
1, 4.444444, -2.222222, 0.000000
2, 4.444444, 2.222222, 0.000000
3, -4.444444, 2.222222, 0.000000
4, -4.444444, -2.222222, 0.000000
5, 0.000000, 1.000000, 0.000000
7, 1.000000, 0.000000, 0.000000
8, 0.000000, -1.000000, 0.000000
9, -1.000000, 0.000000, 0.000000
10, -0.000000, 2.222222, 0.000000
11, 4.444444, 0.000000, 0.000000
12, -0.000000, -2.222222, 0.000000
13, -4.444444, -0.000000, 0.000000
14, 4.444444, -1.944444, 0.000000
15, 4.444444, -1.666667, 0.000000
16, 4.444444, -1.388889, 0.000000
17, 4.444444, -1.111111, 0.000000
18, 4.444444, -0.833333, 0.000000
19, 4.444444, -0.555556, 0.000000
20, 4.444444, -0.277778, 0.000000
21, 4.444444, -2.083333, 0.000000
** ... 928 like lines cut

*ELEMENT, TYPE=CPS8, ELSET=EAll
1, 240, 248, 252, 251, 293, 294, 295, 296
2, 248, 244, 249, 252, 297, 298, 299, 294
3, 252, 249, 245, 250, 299, 300, 301, 302
4, 251, 252, 250, 238, 295, 302, 303, 304
5, 246, 253, 257, 256, 305, 306, 307, 308
6, 253, 98, 254, 257, 309, 310, 311, 306
7, 257, 254, 241, 255, 311, 312, 313, 314
8, 256, 257, 255, 247, 307, 314, 315, 316
9, 164, 258, 260, 163, 317, 318, 319, 171
10, 258, 245, 259, 260, 320, 321, 322, 318
11, 260, 259, 19, 20, 322, 323, 27, 324
12, 163, 260, 20, 11, 319, 324, 28, 170
13, 98, 99, 262, 254, 102, 325, 326, 310
14, 99, 8, 201, 262, 103, 204, 327, 325
15, 262, 201, 202, 261, 327, 205, 328, 329
16, 254, 262, 261, 241, 326, 329, 330, 312
17, 243, 263, 267, 266, 331, 332, 333, 334
18, 263, 242, 264, 267, 335, 336, 337, 332
19, 267, 264, 247, 265, 337, 338, 339, 340
20, 266, 267, 265, 239, 333, 340, 341, 342
** ... 264 like lines cut

*NSET,NSET=P6-P8_nodes
7, 9
*NSET,NSET=P4-P7_nodes
5, 8
*ELSET,ELSET=PART0_elements
1, 2, 3, 4, 5, 6,
7, 8, 9, 10, 11, 12,
13, 14, 15, 16, 17, 18,
19, 20, 21, 22, 23, 24,
25, 26, 27, 28, 29, 30,
31, 32, 33, 34, 35, 36,
37, 38, 39, 40, 41, 42,
43, 44, 45, 46, 47, 48,
49, 50, 51, 52, 53, 54,
55, 56, 57, 58, 59, 60,
61, 62, 63, 64, 65, 66,
67, 68, 69, 70, 71, 72,
73, 74, 75, 76, 77, 78,
79, 80, 81, 82, 83, 84,
85, 86, 87, 88, 89, 90,
91, 92, 93, 94, 95, 96,
97, 98, 99, 100, 101, 102,
103, 104, 105, 106, 107, 108,
109, 110, 111, 112, 113, 114,
115, 116, 117, 118, 119, 120,
** ... 28 like lines cut
*NSET,NSET=PART0_nodes
32, 36, 19, 38, 55, 17,
15, 57, 68, 34, 53, 30,
7, 13, 2, 8, 12, 1,
4, 11, 3, 5, 9, 10,
164, 228, 226, 607, 608, 72,
123, 151, 74, 98, 125, 142,
184, 609, 186, 187, 105, 127,
188, 201, 91, 203, 208, 76,
209, 70, 153, 149, 112, 166,
183, 119, 121, 179, 185, 181,
202, 211, 213, 224, 168, 255,
210, 259, 252, 264, 257, 279,
281, 260, 254, 263, 265, 267,
269, 229, 268, 273, 270, 274,
276, 277, 223, 275, 280, 227,
250, 212, 248, 214, 249, 256,
262, 266, 272, 251, 258, 278,
253, 271, 261, 225, 167, 783,
600, 425, 243, 154, 247, 421,
180, 601, 784, 424, 786, 602,
** ... 138 like lines cut

*MATERIAL,NAME=steel
*ELASTIC
210000000000,0.3
*DENSITY
7800
*SOLID SECTION,ELSET=PART0_elements,MATERIAL=steel
*NODAL THICKNESS
PART0_nodes, 0.100000
*STEP
*STATIC
** Pressure on component: L0-L10_faces
*DLOAD
58,P2,-1000.000000
59,P2,-1000.000000
11,P3,-1000.000000
67,P3,-1000.000000
12,P3,-1000.000000
68,P3,-1000.000000
69,P1,-1000.000000
70,P1,-1000.000000
78,P1,-1000.000000
73,P1,-1000.000000
137,P2,-1000.000000
74,P1,-1000.000000
138,P3,-1000.000000
77,P1,-1000.000000
133,P1,-1000.000000
134,P1,-1000.000000
** Pressure on component: L2-L14_faces
*DLOAD
232,P3,-1000.000000
275,P3,-1000.000000
276,P3,-1000.000000
253,P1,-1000.000000
254,P1,-1000.000000
270,P2,-1000.000000
271,P2,-1000.000000
231,P3,-1000.000000
208,P3,-1000.000000
145,P1,-1000.000000
146,P1,-1000.000000
210,P2,-1000.000000
211,P2,-1000.000000
171,P3,-1000.000000
172,P3,-1000.000000
207,P3,-1000.000000
*BOUNDARY
P6-P8_nodes,2,2,0.000000
*BOUNDARY
P4-P7_nodes,1,1,0.000000
*EL FILE
E,S
*NODE FILE
RF,U
*EL PRINT,ELSET=EALL
S
*END STEP
