*NODE, NSET=nodes
1, 0.000000, 0.500000, 0.000000
3, 0.500000, 0.000000, 0.000000
4, 2.222222, 0.000000, 0.000000
5, 2.222222, 1.111111, 0.000000
6, 1.111111, 1.111111, 0.000000
7, 0.000000, 1.111111, 0.000000
8, 1.111111, 0.000000, 0.000000
9, 0.097545, 0.490393, 0.000000
10, 0.191342, 0.461940, 0.000000
11, 0.277785, 0.415735, 0.000000
12, 0.353553, 0.353553, 0.000000
13, 0.415735, 0.277785, 0.000000
14, 0.461940, 0.191342, 0.000000
15, 0.490393, 0.097545, 0.000000
16, 0.049009, 0.497592, 0.000000
17, 0.145142, 0.478470, 0.000000
18, 0.235698, 0.440961, 0.000000
19, 0.317197, 0.386505, 0.000000
20, 0.386505, 0.317197, 0.000000
21, 0.440961, 0.235698, 0.000000
** ... 881 like lines cut

*ELEMENT, TYPE=CPS8, ELSET=EAll
1, 188, 191, 195, 194, 278, 279, 280, 281
2, 191, 169, 192, 195, 282, 283, 284, 279
3, 195, 192, 180, 193, 284, 285, 286, 287
4, 194, 195, 193, 190, 280, 287, 288, 289
5, 174, 196, 200, 199, 290, 291, 292, 293
6, 196, 171, 197, 200, 294, 295, 296, 291
7, 200, 197, 179, 198, 296, 297, 298, 299
8, 199, 200, 198, 183, 292, 299, 300, 301
9, 109, 110, 204, 203, 117, 302, 303, 304
10, 110, 111, 201, 204, 118, 305, 306, 302
11, 204, 201, 184, 202, 306, 307, 308, 309
12, 203, 204, 202, 175, 303, 309, 310, 311
13, 25, 205, 207, 24, 312, 313, 314, 32
14, 205, 173, 206, 207, 315, 316, 317, 313
15, 207, 206, 14, 15, 317, 318, 22, 319
16, 24, 207, 15, 3, 314, 319, 23, 31
17, 7, 108, 209, 95, 115, 320, 321, 107
18, 108, 109, 203, 209, 116, 304, 322, 320
19, 209, 203, 175, 208, 322, 311, 323, 324
20, 95, 209, 208, 94, 321, 324, 325, 106
** ... 256 like lines cut

*NSET,NSET=L1-L6_nodes
25, 27, 29, 3, 8, 26,
28, 24, 30, 32, 33, 37,
36, 35, 38, 34, 31, 8,
4, 130, 133, 128, 132, 126,
124, 123, 127, 129, 125, 131,
136, 137, 139, 134, 138, 141,
142, 143, 135, 145, 140, 144
*NSET,NSET=L5_nodes
1, 7, 113, 109, 111, 108,
114, 112, 110, 115, 117, 116,
120, 119, 118, 122, 121
*ELSET,ELSET=PART0_elements
1, 2, 3, 4, 5, 6,
7, 8, 9, 10, 11, 12,
13, 14, 15, 16, 17, 18,
19, 20, 21, 22, 23, 24,
25, 26, 27, 28, 29, 30,
31, 32, 33, 34, 35, 36,
37, 38, 39, 40, 41, 42,
43, 44, 45, 46, 47, 48,
49, 50, 51, 52, 53, 54,
55, 56, 57, 58, 59, 60,
61, 62, 63, 64, 65, 66,
67, 68, 69, 70, 71, 72,
73, 74, 75, 76, 77, 78,
79, 80, 81, 82, 83, 84,
85, 86, 87, 88, 89, 90,
91, 92, 93, 94, 95, 96,
97, 98, 99, 100, 101, 102,
103, 104, 105, 106, 107, 108,
109, 110, 111, 112, 113, 114,
115, 116, 117, 118, 119, 120,
** ... 26 like lines cut
*NSET,NSET=PART0_nodes
12, 25, 40, 42, 27, 44,
46, 48, 63, 29, 10, 14,
3, 1, 5, 6, 7, 8,
4, 193, 130, 113, 155, 150,
195, 153, 151, 199, 156, 71,
88, 133, 148, 69, 109, 86,
128, 194, 196, 90, 149, 197,
198, 200, 201, 132, 111, 65,
202, 92, 94, 126, 147, 152,
124, 154, 67, 146, 191, 192,
247, 543, 546, 547, 251, 252,
258, 265, 274, 250, 259, 263,
253, 275, 261, 548, 268, 255,
269, 270, 273, 254, 544, 545,
549, 249, 257, 266, 262, 245,
260, 248, 264, 272, 246, 244,
277, 267, 256, 271, 276, 108,
114, 176, 187, 95, 179, 189,
186, 188, 190, 72, 93, 66,
123, 87, 175, 127, 185, 112,
** ... 131 like lines cut

*MATERIAL,NAME=steel
*ELASTIC
210000,0.3
*DENSITY
7800
*SOLID SECTION,ELSET=PART0_elements,MATERIAL=steel
*NODAL THICKNESS
PART0_nodes, 0.010000
*STEP
*STATIC
** Pressure on component: L2_faces
*DLOAD
233,P1,-1000.000000
193,P1,-1000.000000
175,P2,-1000.000000
234,P1,-1000.000000
194,P1,-1000.000000
203,P3,-1000.000000
251,P3,-1000.000000
204,P3,-1000.000000
252,P3,-1000.000000
174,P2,-1000.000000
223,P2,-1000.000000
222,P2,-1000.000000
*BOUNDARY
L1-L6_nodes,2,2,0.000000
*BOUNDARY
L5_nodes,1,1,0.000000
*EL FILE
E,S
*NODE FILE
RF,U
*EL PRINT,ELSET=EALL
S
*END STEP
