SUMMARY OF JOB INFORMATION
  STEP      INC     ATT  ITRS     TOT TIME     STEP TIME      INC TIME
     1          1     1U    3  0.000000E+00  0.000000E+00  0.100000E+01
     1          1     2U    7  0.000000E+00  0.000000E+00  0.100000E+01
     1          1     3U    7  0.000000E+00  0.000000E+00  0.250000E+00
     1          1     4U    7  0.000000E+00  0.000000E+00  0.625000E-01
     1          1     5U    7  0.000000E+00  0.000000E+00  0.156250E-01
     1          1     6U    7  0.000000E+00  0.000000E+00  0.390625E-02
