*NODE, NSET=nodes
1, 4.000000, -0.500000, 0.000000
2, 0.000000, 0.250000, 0.000000
3, -0.500000, 4.000000, 0.000000
4, 0.500000, 3.500000, 0.000000
5, 0.500000, 4.000000, 0.000000
6, 4.500000, 7.500000, 0.000000
7, 4.500000, 8.000000, 0.000000
8, -0.500000, -0.000000, 0.000000
10, -0.000000, -0.500000, 0.000000
12, 4.500000, 0.000000, 0.000000
14, 4.000000, 8.500000, 0.000000
15, 3.500000, 8.000000, 0.000000
16, 3.500000, 1.000000, 0.000000
18, 3.000000, 0.500000, 0.000000
19, 1.000000, 0.500000, 0.000000
21, 0.500000, 1.000000, 0.000000
23, 0.000000, 4.500000, 0.000000
24, 0.250000, 0.000000, 0.000000
25, 0.000000, -0.250000, 0.000000
26, -0.250000, 0.000000, 0.000000
** ... 1409 like lines cut

*ELEMENT, TYPE=CPS8, ELSET=EAll
1, 485, 492, 496, 495, 536, 537, 538, 539
2, 492, 491, 493, 496, 540, 541, 542, 537
3, 496, 493, 484, 494, 542, 543, 544, 545
4, 495, 496, 494, 177, 538, 545, 546, 547
5, 449, 497, 499, 448, 548, 549, 550, 452
6, 497, 488, 498, 499, 551, 552, 553, 549
7, 499, 498, 456, 457, 553, 554, 460, 555
8, 448, 499, 457, 54, 550, 555, 461, 451
9, 484, 493, 503, 502, 543, 556, 557, 558
10, 493, 491, 500, 503, 541, 559, 560, 556
11, 503, 500, 156, 501, 560, 561, 562, 563
12, 502, 503, 501, 486, 557, 563, 564, 565
13, 114, 115, 506, 505, 118, 566, 567, 568
14, 115, 53, 441, 506, 119, 444, 569, 566
15, 506, 441, 442, 504, 569, 445, 570, 571
16, 505, 506, 504, 490, 567, 571, 572, 573
17, 19, 507, 509, 443, 574, 575, 576, 447
18, 507, 487, 508, 509, 577, 578, 579, 575
19, 509, 508, 490, 504, 579, 580, 572, 581
20, 443, 509, 504, 442, 576, 581, 570, 446
** ... 384 like lines cut

*NSET,NSET=P38-P46_nodes
39, 44
*NSET,NSET=P40-P47_nodes
38, 40, 43, 45
*NSET,NSET=P50-P52_nodes
48, 50
*NSET,NSET=P50_nodes
48
*ELSET,ELSET=PART0-PART3_elements
1, 2, 3, 4, 5, 6,
7, 8, 9, 10, 11, 12,
13, 14, 15, 16, 17, 18,
19, 20, 21, 22, 23, 24,
25, 26, 27, 28, 29, 30,
31, 32, 33, 34, 35, 36,
37, 38, 39, 40, 41, 42,
43, 44, 45, 46, 47, 48,
49, 50, 51, 52, 53, 54,
55, 56, 57, 58, 59, 60,
61, 62, 63, 64, 65, 66,
67, 68, 69, 70, 71, 72,
141, 142, 143, 144, 145, 146,
147, 148, 149, 150, 151, 152,
153, 154, 155, 156, 157, 158,
159, 160, 161, 162, 163, 164,
165, 166, 167, 168, 169, 170,
171, 172, 173, 174, 175, 176,
177, 178, 179, 180, 181, 182,
183, 184, 185, 186, 187, 188,
** ... 48 like lines cut
*ELSET,ELSET=PART1-PART3_elements
73, 74, 75, 76, 77, 78,
79, 80, 81, 82, 83, 84,
85, 86, 87, 88, 89, 90,
91, 92, 93, 94, 95, 96,
97, 98, 99, 100, 101, 102,
103, 104, 105, 106, 107, 108,
109, 110, 111, 112, 113, 114,
115, 116, 117, 118, 119, 120,
121, 122, 123, 124, 125, 126,
127, 128, 129, 130, 131, 132,
133, 134, 135, 136, 137, 138,
139, 140
*ELSET,ELSET=PART0_elements
1, 2, 3, 4, 5, 6,
7, 8, 9, 10, 11, 12,
13, 14, 15, 16, 17, 18,
19, 20, 21, 22, 23, 24,
25, 26, 27, 28, 29, 30,
31, 32, 33, 34, 35, 36,
37, 38, 39, 40, 41, 42,
43, 44, 45, 46, 47, 48,
49, 50, 51, 52, 53, 54,
55, 56, 57, 58, 59, 60,
61, 62, 63, 64, 65, 66,
67, 68, 69, 70, 71, 72,
141, 142, 143, 144, 145, 146,
147, 148, 149, 150, 151, 152,
153, 154, 155, 156, 157, 158,
159, 160, 161, 162, 163, 164,
165, 166, 167, 168, 169, 170,
171, 172, 173, 174, 175, 176,
177, 178, 179, 180, 181, 182,
183, 184, 185, 186, 187, 188,
** ... 36 like lines cut
*SURFACE,NAME=L31-L28_faces,TYPE=ELEMENT
88,S3
88,S4
87,S3
85,S4
83,S3
84,S3
80,S3
79,S3
76,S3
80,S4
75,S3
77,S4
94,S1
94,S2
93,S1
95,S2
*SURFACE,NAME=L1-L19_faces,TYPE=ELEMENT
46,S1
38,S2
45,S1
39,S2
66,S2
52,S3
67,S2
51,S3
70,S2
71,S2
62,S2
63,S2
54,S1
58,S2
53,S1
59,S2
*SURFACE,NAME=L35-L32_faces,TYPE=ELEMENT
112,S3
112,S4
111,S3
109,S4
104,S3
99,S3
103,S3
100,S3
106,S2
100,S4
107,S2
97,S4
116,S3
116,S4
115,S3
113,S4
*SURFACE,NAME=L20-L23_faces,TYPE=ELEMENT
396,S2
390,S4
397,S2
387,S4
368,S2
358,S4
369,S2
355,S4
372,S1
362,S3
371,S1
361,S3
392,S2
378,S4
393,S2
375,S4
*SURFACE,NAME=L39-L36_faces,TYPE=ELEMENT
128,S3
136,S4
127,S3
133,S4
122,S1
122,S2
121,S1
123,S2
140,S3
140,S4
139,S3
137,S4
132,S3
136,S3
131,S3
135,S3
*SURFACE,NAME=L24-L27_faces,TYPE=ELEMENT
178,S1
196,S3
177,S1
195,S3
158,S1
166,S2
157,S1
167,S2
164,S3
156,S4
163,S3
153,S4
200,S4
184,S4
197,S4
181,S4
*NSET,NSET=PART0_nodes
57, 93, 75, 73, 100, 107,
114, 64, 121, 128, 71, 86,
32, 10, 28, 34, 23, 4,
1, 5, 30, 3, 6, 50,
8, 16, 19, 24, 26, 31,
18, 2, 21, 7, 25, 12,
15, 27, 14, 29, 33, 55,
52, 54, 53, 51, 205, 191,
198, 345, 347, 351, 353, 355,
385, 170, 357, 177, 156, 226,
254, 376, 349, 383, 387, 149,
135, 247, 184, 142, 212, 233,
219, 240, 163, 346, 386, 429,
443, 350, 396, 434, 448, 352,
377, 427, 441, 356, 422, 344,
390, 354, 348, 382, 358, 375,
384, 392, 413, 415, 394, 420,
436, 388, 456, 486, 490, 478,
148, 821, 487, 428, 141, 489,
484, 389, 465, 395, 820, 485,
** ... 176 like lines cut
*NSET,NSET=PART1-PART3_nodes
37, 38, 39, 35, 261, 275,
282, 268, 660, 662, 661, 269,
276, 260, 262, 274, 267, 281,
283, 671, 674, 664, 668, 670,
666, 667, 673, 676, 663, 675,
672, 665, 669, 265, 270, 271,
272, 273, 263, 264, 266, 284,
286, 287, 285, 277, 278, 279,
280, 710, 713, 714, 715, 716,
709, 707, 711, 712, 708, 677,
678, 679, 680, 698, 689, 685,
693, 705, 706, 691, 692, 697,
699, 704, 686, 687, 681, 700,
702, 690, 703, 683, 695, 694,
684, 688, 696, 701, 682, 42,
40, 43, 44, 296, 310, 303,
289, 309, 302, 311, 304, 718,
719, 717, 290, 295, 288, 297,
721, 723, 725, 731, 732, 733,
729, 724, 720, 728, 727, 722,
** ... 23 like lines cut

*MATERIAL,NAME=steel
*ELASTIC
210000000000,0.3
*DENSITY
7800
*SOLID SECTION,ELSET=PART1-PART3_elements,MATERIAL=steel
*SOLID SECTION,ELSET=PART0_elements,MATERIAL=steel
*NODAL THICKNESS
PART0_nodes, 0.100000
*NODAL THICKNESS
PART1-PART3_nodes, 0.100000
*SURFACE INTERACTION,NAME=SI0
*SURFACE BEHAVIOR,PRESSURE-OVERCLOSURE=LINEAR
1.050000e+12
*SURFACE INTERACTION,NAME=SI1
*SURFACE BEHAVIOR,PRESSURE-OVERCLOSURE=LINEAR
1.050000e+12
*SURFACE INTERACTION,NAME=SI2
*SURFACE BEHAVIOR,PRESSURE-OVERCLOSURE=LINEAR
1.050000e+12
*CONTACT PAIR,INTERACTION=SI0,TYPE=SURFACE TO SURFACE
L1-L19_faces,L31-L28_faces
*CONTACT PAIR,INTERACTION=SI1,TYPE=SURFACE TO SURFACE
L20-L23_faces,L35-L32_faces
*CONTACT PAIR,INTERACTION=SI2,TYPE=SURFACE TO SURFACE
L24-L27_faces,L39-L36_faces
*STEP
*STATIC
*BOUNDARY
P38-P46_nodes,1,1,0.000000
*BOUNDARY
P40-P47_nodes,2,2,0.000000
*BOUNDARY
P50-P52_nodes,2,2,0.000000
** Force on component: P50_nodes
*CLOAD
P50_nodes,1,-500.000000
** Gravity on component: PART0-PART3_elements
*DLOAD
PART0-PART3_elements,GRAV,9.810000,-1.,0.,0.
*EL FILE
E,S
*NODE FILE
RF,U
*EL PRINT,ELSET=EALL
S
*END STEP
