*NODE, NSET=nodes
1, 0.000000, 0.105430, 0.000000
3, 0.105430, 0.000000, 0.000000
4, 0.114300, 0.000000, 0.000000
5, 0.000000, 0.114300, 0.000000
6, 0.114300, 0.000000, 0.000000
7, 0.123170, 0.000000, 0.000000
8, 0.123170, 0.114300, 0.000000
9, 0.114300, 0.114300, 0.000000
10, 0.008272, 0.105105, 0.000000
11, 0.016493, 0.104132, 0.000000
12, 0.024612, 0.102517, 0.000000
13, 0.032580, 0.100270, 0.000000
14, 0.040346, 0.097405, 0.000000
15, 0.047864, 0.093939, 0.000000
16, 0.055087, 0.089894, 0.000000
17, 0.061970, 0.085295, 0.000000
18, 0.068471, 0.080170, 0.000000
19, 0.074550, 0.074550, 0.000000
20, 0.080170, 0.068471, 0.000000
21, 0.085295, 0.061970, 0.000000
** ... 380 like lines cut

*ELEMENT, TYPE=CPE8, ELSET=EAll
1, 13, 14, 191, 190, 33, 215, 216, 217
2, 14, 15, 189, 191, 34, 218, 219, 215
3, 191, 189, 71, 72, 219, 220, 95, 221
4, 190, 191, 72, 73, 216, 221, 96, 222
5, 25, 192, 194, 24, 223, 224, 225, 44
6, 192, 61, 62, 194, 226, 85, 227, 224
7, 194, 62, 63, 193, 227, 86, 228, 229
8, 24, 194, 193, 23, 225, 229, 230, 43
9, 104, 105, 197, 196, 108, 231, 232, 233
10, 105, 1, 10, 197, 109, 29, 234, 231
11, 197, 10, 11, 195, 234, 30, 235, 236
12, 196, 197, 195, 186, 232, 236, 237, 238
13, 104, 196, 199, 103, 233, 239, 240, 107
14, 196, 186, 198, 199, 238, 241, 242, 239
15, 199, 198, 77, 78, 242, 243, 101, 244
16, 103, 199, 78, 5, 240, 244, 102, 106
17, 73, 74, 201, 190, 97, 245, 246, 222
18, 74, 75, 200, 201, 98, 247, 248, 245
19, 201, 200, 11, 12, 248, 249, 31, 250
20, 190, 201, 12, 13, 246, 250, 32, 217
** ... 82 like lines cut

*NSET,NSET=L1_nodes
50, 4, 3, 49, 51, 53,
55, 52, 54
*NSET,NSET=L3_nodes
1, 5, 104, 103, 105, 107,
108, 109, 106
*NSET,NSET=L4_nodes
7, 6, 111, 110, 112, 113,
114, 116, 115
*NSET,NSET=L5_nodes
7, 8, 122, 124, 128, 118,
126, 130, 120, 119, 131, 125,
121, 127, 123, 129, 117, 132,
136, 142, 133, 138, 144, 145,
146, 137, 139, 141, 147, 135,
143, 134, 140
*ELSET,ELSET=PART0_elements
1, 2, 3, 4, 5, 6,
7, 8, 9, 10, 11, 12,
13, 14, 15, 16, 17, 18,
19, 20, 21, 22, 23, 24,
25, 26, 27, 28, 29, 30,
31, 32, 33, 34, 35, 36,
37, 38, 39, 40, 41, 42,
43, 44, 45, 46, 47, 48,
49, 50, 51, 52, 53, 54
*ELSET,ELSET=PART1_elements
55, 56, 57, 58, 59, 60,
61, 62, 63, 64, 65, 66,
67, 68, 69, 70, 71, 72,
73, 74, 75, 76, 77, 78,
79, 80, 81, 82, 83, 84,
85, 86, 87, 88, 89, 90,
91, 92, 93, 94, 95, 96,
97, 98, 99, 100, 101, 102
*SURFACE,NAME=L7_faces,TYPE=ELEMENT
96,S3
57,S3
73,S3
81,S4
74,S3
82,S4
91,S1
58,S3
92,S1
76,S2
84,S4
77,S2
69,S3
70,S3
95,S2
79,S4
*SURFACE,NAME=L2_faces,TYPE=ELEMENT
30,S2
16,S3
27,S3
36,S3
28,S3
38,S2
54,S4
39,S2
*NSET,NSET=PART0_nodes
21, 15, 19, 17, 23, 27,
11, 25, 50, 57, 13, 1,
4, 3, 5, 59, 16, 22,
73, 10, 67, 77, 75, 65,
63, 12, 14, 18, 24, 20,
26, 28, 49, 51, 69, 104,
61, 71, 186, 56, 64, 66,
74, 70, 188, 193, 68, 76,
190, 60, 62, 103, 72, 105,
187, 189, 78, 58, 192, 191,
201, 210, 203, 209, 205, 213,
214, 194, 195, 196, 208, 199,
212, 206, 200, 207, 197, 204,
211, 198, 202, 85, 86, 47,
87, 32, 88, 29, 30, 33,
36, 31, 37, 34, 38, 43,
41, 44, 45, 48, 53, 55,
79, 80, 46, 82, 39, 81,
35, 52, 40, 83, 54, 42,
84, 93, 95, 107, 108, 101,
** ... 16 like lines cut
*NSET,NSET=PART1_nodes
318, 7, 8, 9, 6, 122,
156, 111, 124, 128, 118, 126,
130, 149, 164, 168, 297, 162,
166, 160, 120, 158, 110, 119,
131, 150, 125, 167, 121, 163,
127, 148, 123, 157, 155, 159,
165, 169, 129, 112, 117, 161,
310, 312, 315, 316, 317, 303,
300, 301, 306, 298, 311, 313,
314, 304, 302, 307, 299, 305,
308, 309, 319, 322, 320, 324,
325, 323, 321, 132, 136, 113,
114, 142, 133, 138, 144, 145,
146, 116, 137, 139, 141, 147,
151, 115, 135, 143, 134, 152,
153, 140, 173, 176, 171, 175,
179, 154, 184, 181, 177, 174,
170, 182, 183, 185, 172, 178,
180, 338, 339, 340, 332, 329,
330, 334, 335, 337, 328, 336,
** ... 11 like lines cut

*MATERIAL,NAME=steel
*ELASTIC
210000000000,0.3
*DENSITY
7800
*SOLID SECTION,ELSET=PART0_elements,MATERIAL=steel
*SOLID SECTION,ELSET=PART1_elements,MATERIAL=steel
*NODAL THICKNESS
PART0_nodes, 1.143000
*NODAL THICKNESS
PART1_nodes, 1.143000
*SURFACE INTERACTION,NAME=SI0
*SURFACE BEHAVIOR,PRESSURE-OVERCLOSURE=LINEAR
1.050000e+12
*CONTACT PAIR,INTERACTION=SI0,TYPE=SURFACE TO SURFACE
L2_faces,L7_faces
*STEP
*STATIC
*BOUNDARY
L1_nodes,2,2,0.000000
*BOUNDARY
L3_nodes,1,1,0.000000
*BOUNDARY
L4_nodes,2,2,0.000000
*BOUNDARY
L5_nodes,1,1,-0.025000
*EL FILE
E,S
*NODE FILE
RF,U
*EL PRINT,ELSET=EALL
S
*END STEP
